Circuit: * C:\Users\Gordon\Documents\github\LTspice\1_HalfRectifier\HalfRectifier.asc

.OP point found by inspection.

Date: Sun Sep 04 15:32:22 2022
Total elapsed time: 0.160 seconds.

tnom = 27
temp = 27
method = modified trap
totiter = 2116
traniter = 2116
tranpoints = 1042
accept = 1042
rejected = 0
matrix size = 4
fillins = 0
solver = Normal
Matrix Compiler1:       7 opcodes  0.0/[0.0]/0.0
Matrix Compiler2:      21 opcodes  0.0/[0.0]/0.0

